*NODE, NSET=ALL
	1, 0.000000e+00, 0.000000e+00, 0.000000e+00
	2, 1.000000e-03, 0.000000e+00, 0.000000e+00
	3, 2.000000e-03, 0.000000e+00, 0.000000e+00
	4, 3.000000e-03, 0.000000e+00, 0.000000e+00
	5, 4.000000e-03, 0.000000e+00, 0.000000e+00
	6, 5.000000e-03, 0.000000e+00, 0.000000e+00
	7, 6.000000e-03, 0.000000e+00, 0.000000e+00
	8, 7.000000e-03, 0.000000e+00, 0.000000e+00
	9, 8.000000e-03, 0.000000e+00, 0.000000e+00
	10, 9.000000e-03, 0.000000e+00, 0.000000e+00
	11, 1.000000e-02, 0.000000e+00, 0.000000e+00
	12, 1.100000e-02, 0.000000e+00, 0.000000e+00
	13, 1.200000e-02, 0.000000e+00, 0.000000e+00
	14, 1.300000e-02, 0.000000e+00, 0.000000e+00
	15, 1.400000e-02, 0.000000e+00, 0.000000e+00
	16, 1.500000e-02, 0.000000e+00, 0.000000e+00
	17, 1.600000e-02, 0.000000e+00, 0.000000e+00
	18, 1.700000e-02, 0.000000e+00, 0.000000e+00
	19, 1.800000e-02, 0.000000e+00, 0.000000e+00
	20, 1.900000e-02, 0.000000e+00, 0.000000e+00
** ... 181 like lines cut
*ELEMENT, TYPE=B21, ELSET=viga
	1, 1, 2
	2, 2, 3
	3, 3, 4
	4, 4, 5
	5, 5, 6
	6, 6, 7
	7, 7, 8
	8, 8, 9
	9, 9, 10
	10, 10, 11
	11, 11, 12
	12, 12, 13
	13, 13, 14
	14, 14, 15
	15, 15, 16
	16, 16, 17
	17, 17, 18
	18, 18, 19
	19, 19, 20
	20, 20, 21
** ... 180 like lines cut
*MATERIAL, NAME=aluminio
*ELASTIC, TYPE=ISOTROPIC
	110000000000.0, 0.3
*DENSITY
	8780.0
*BEAM SECTION, ELSET=viga, MATERIAL=aluminio, SECTION=rect
	1, 0.0002
	0.0, 1.0, 0.0
*BOUNDARY
	1, 1, 6, 0.0
*STEP
*FREQUENCY, EIGENSOLVER=SUBSPACE
	3,,,,
*NODE FILE, OUTPUT=2D
	U
*EL FILE, OUTPUT=2D
	E, S
*END STEP